New England/PSSE Cases/Medium/Spring4Tight.RAW
 0,    100.00, 33, 0, 0, 60.00       / August 21, 2017 18:25:34; Simulator Version 19; BuildDate 2016_7_14


    1,'1           ', 345.0000,2,   1,   1,   1,1.03641, -17.5005, 1.10000, 0.98000, 1.10000, 0.98000
    2,'2           ', 345.0000,1,   1,   1,   1,1.03202, -17.6941, 1.06000, 0.92000, 1.06000, 0.92000
    3,'3           ', 138.0000,2,   1,   1,   1,1.02000,  -6.7181, 1.10000, 0.98000, 1.10000, 0.98000
    4,'4           ', 138.0000,1,   1,   1,   1,1.01356, -12.2392, 1.06000, 0.92000, 1.06000, 0.92000
    5,'5           ', 230.0000,1,   1,   1,   1,1.01194,  -9.9750, 1.06000, 0.92000, 1.06000, 0.92000
    6,'6           ', 138.0000,1,   1,   1,   1,1.01449,  -7.8750, 1.06000, 0.92000, 1.06000, 0.92000
    7,'7           ', 138.0000,2,   1,   1,   1,1.02000,  -8.9749, 1.10000, 0.98000, 1.10000, 0.98000
    8,'8           ', 230.0000,2,   1,   1,   1,1.02000,  -7.1495, 1.10000, 0.98000, 1.10000, 0.98000
    9,'9           ', 345.0000,1,   1,   1,   1,1.03384,  -8.2902, 1.06000, 0.92000, 1.06000, 0.92000
   10,'10          ', 138.0000,3,   1,   1,   1,1.02000,   0.0000, 1.10000, 0.98000, 1.10000, 0.98000
   11,'11          ', 138.0000,1,   1,   1,   1,1.01883,  -0.7936, 1.06000, 0.92000, 1.06000, 0.92000
   12,'12          ', 138.0000,1,   1,   1,   1,1.01889,  -1.4169, 1.06000, 0.92000, 1.06000, 0.92000
   13,'13          ', 345.0000,1,   1,   1,   1,1.02011,  -3.0486, 1.06000, 0.92000, 1.06000, 0.92000
   14,'14          ', 230.0000,1,   1,   1,   1,1.02273,  -7.8400, 1.06000, 0.92000, 1.06000, 0.92000
   15,'15          ', 230.0000,1,   1,   1,   1,1.01719, -10.0179, 1.06000, 0.92000, 1.06000, 0.92000
   16,'16          ', 138.0000,1,   1,   1,   1,1.01377, -12.5222, 1.06000, 0.92000, 1.06000, 0.92000
   17,'17          ', 138.0000,1,   1,   1,   1,1.00174, -14.3528, 1.06000, 0.92000, 1.06000, 0.92000
   18,'18          ', 138.0000,1,   1,   1,   1,1.00506, -12.6170, 1.06000, 0.92000, 1.06000, 0.92000
   19,'19          ', 138.0000,1,   1,   1,   1,0.99784, -18.5414, 1.06000, 0.92000, 1.06000, 0.92000
   20,'20          ',  69.0000,1,   1,   1,   1,0.99136, -19.6016, 1.06000, 0.92000, 1.06000, 0.92000
   21,'21          ', 138.0000,1,   1,   1,   1,1.00136, -16.8754, 1.06000, 0.92000, 1.06000, 0.92000
   22,'22          ', 230.0000,1,   1,   1,   1,1.00873,  -7.4440, 1.06000, 0.92000, 1.06000, 0.92000
   23,'23          ', 230.0000,1,   1,   1,   1,0.99197, -10.0365, 1.06000, 0.92000, 1.06000, 0.92000
   24,'24          ', 230.0000,2,   1,   1,   1,1.02000,  -9.9008, 1.10000, 0.98000, 1.10000, 0.98000
   25,'25          ', 230.0000,1,   1,   1,   1,1.00819, -19.7115, 1.06000, 0.92000, 1.06000, 0.92000
   26,'26          ', 345.0000,2,   1,   1,   1,1.02000, -29.0524, 1.10000, 0.98000, 1.10000, 0.98000
   27,'27          ', 230.0000,1,   1,   1,   1,1.01803, -29.7276, 1.06000, 0.92000, 1.06000, 0.92000
   28,'28          ', 138.0000,2,   1,   1,   1,1.02000, -33.7519, 1.10000, 0.98000, 1.10000, 0.98000
   29,'29          ', 138.0000,1,   1,   1,   1,1.02245, -36.9341, 1.06000, 0.92000, 1.06000, 0.92000
   30,'30          ',  14.0000,2,   1,   1,   1,1.02000, -16.3902, 1.10000, 0.98000, 1.10000, 0.98000
   31,'31          ',  14.0000,2,   1,   1,   1,1.01449,  -7.8750, 1.10000, 0.98000, 1.10000, 0.98000
   32,'32          ',  14.0000,2,   1,   1,   1,1.02000,  -0.0000, 1.10000, 0.98000, 1.10000, 0.98000
   33,'33          ',  14.0000,2,   1,   1,   1,1.02000, -15.9971, 1.10000, 0.98000, 1.10000, 0.98000
   34,'34          ',  14.0000,2,   1,   1,   1,0.98868, -20.0210, 1.10000, 0.98000, 1.10000, 0.98000
   35,'35          ',  14.0000,2,   1,   1,   1,1.02000,   0.3703, 1.10000, 0.98000, 1.10000, 0.98000
   36,'36          ',  14.0000,2,   1,   1,   1,0.99197, -10.0365, 1.10000, 0.98000, 1.10000, 0.98000
   37,'37          ',  14.0000,2,   1,   1,   1,1.00819, -19.7115, 1.10000, 0.98000, 1.10000, 0.98000
   38,'38          ',  14.0000,2,   1,   1,   1,1.02245, -36.9341, 1.10000, 0.98000, 1.10000, 0.98000
   39,'39          ', 345.0000,1,   1,   1,   1,1.02632, -25.0062, 1.06000, 0.92000, 1.06000, 0.92000
   40,'40          ', 345.0000,1,   1,   1,   1,1.01799, -29.3944, 1.06000, 0.92000, 1.06000, 0.92000
   41,'41          ', 345.0000,1,   1,   1,   1,1.01844, -28.6303, 1.06000, 0.92000, 1.06000, 0.92000
   42,'42          ', 345.0000,1,   1,   1,   1,1.03608, -33.4830, 1.06000, 0.92000, 1.06000, 0.92000
   43,'43          ', 345.0000,1,   1,   1,   1,1.02033, -28.7696, 1.06000, 0.92000, 1.06000, 0.92000
   44,'44          ', 230.0000,1,   1,   1,   1,1.01709, -10.2006, 1.06000, 0.92000, 1.06000, 0.92000
   45,'45          ', 345.0000,1,   1,   1,   1,1.01941, -10.0181, 1.06000, 0.92000, 1.06000, 0.92000
   46,'46          ', 138.0000,1,   1,   1,   1,1.00351, -11.5858, 1.06000, 0.92000, 1.06000, 0.92000
   47,'47          ', 138.0000,1,   1,   1,   1,0.98834, -13.7777, 1.06000, 0.92000, 1.06000, 0.92000
   48,'48          ', 345.0000,1,   1,   1,   1,1.01748, -12.5763, 1.06000, 0.92000, 1.06000, 0.92000
   49,'49          ', 138.0000,2,   1,   1,   1,1.02000,  -6.6140, 1.10000, 0.98000, 1.10000, 0.98000
   50,'50          ', 138.0000,1,   1,   1,   1,1.00704, -10.0182, 1.06000, 0.92000, 1.06000, 0.92000
   51,'51          ', 138.0000,1,   1,   1,   1,1.01792, -12.3673, 1.06000, 0.92000, 1.06000, 0.92000
   52,'52          ', 345.0000,2,   1,   1,   1,1.02000,  -9.8653, 1.10000, 0.98000, 1.10000, 0.98000
   53,'53          ', 138.0000,1,   1,   1,   1,1.01108, -12.2817, 1.06000, 0.92000, 1.06000, 0.92000
   54,'54          ', 230.0000,2,   1,   1,   1,1.02000,  -6.6300, 1.10000, 0.98000, 1.10000, 0.98000
   55,'55          ', 230.0000,1,   1,   1,   1,1.01779,  -9.9215, 1.06000, 0.92000, 1.06000, 0.92000
   56,'56          ', 345.0000,2,   1,   1,   1,1.02000,  -7.2430, 1.10000, 0.98000, 1.10000, 0.98000
   57,'57          ', 138.0000,1,   1,   1,   1,0.99910, -12.9729, 1.06000, 0.92000, 1.06000, 0.92000
   58,'58          ', 345.0000,1,   1,   1,   1,1.01353,  -8.0730, 1.06000, 0.92000, 1.06000, 0.92000
   59,'59          ', 345.0000,1,   1,   1,   1,1.01941,  -9.5235, 1.06000, 0.92000, 1.06000, 0.92000
   60,'60          ', 138.0000,1,   1,   1,   1,0.99713, -12.6854, 1.06000, 0.92000, 1.06000, 0.92000
   61,'61          ', 230.0000,1,   1,   1,   1,1.01887, -10.8854, 1.06000, 0.92000, 1.06000, 0.92000
   62,'62          ', 345.0000,1,   1,   1,   1,1.01084,  -8.5699, 1.06000, 0.92000, 1.06000, 0.92000
   63,'63          ', 138.0000,1,   1,   1,   1,0.99622, -13.2493, 1.06000, 0.92000, 1.06000, 0.92000
   64,'64          ', 138.0000,1,   1,   1,   1,1.00220, -10.7823, 1.06000, 0.92000, 1.06000, 0.92000
   65,'65          ', 138.0000,1,   1,   1,   1,1.01196,  -8.6898, 1.06000, 0.92000, 1.06000, 0.92000
   66,'66          ', 345.0000,1,   1,   1,   1,1.01480,  -7.9866, 1.06000, 0.92000, 1.06000, 0.92000
   67,'67          ', 138.0000,1,   1,   1,   1,1.00848, -12.5506, 1.06000, 0.92000, 1.06000, 0.92000
   68,'68          ', 138.0000,1,   1,   1,   1,1.01359, -11.7588, 1.06000, 0.92000, 1.06000, 0.92000
   69,'69          ', 345.0000,2,   1,   1,   1,1.01619,  -3.6702, 1.10000, 0.98000, 1.10000, 0.98000
   70,'70          ', 138.0000,1,   1,   1,   1,1.01745,  -4.4883, 1.06000, 0.92000, 1.06000, 0.92000
   71,'71          ', 345.0000,1,   1,   1,   1,1.01684,  -7.7036, 1.06000, 0.92000, 1.06000, 0.92000
   72,'72          ', 138.0000,2,   1,   1,   1,1.02000, -12.3022, 1.10000, 0.98000, 1.10000, 0.98000
   73,'73          ', 138.0000,1,   1,   1,   1,1.01836, -12.3936, 1.06000, 0.92000, 1.06000, 0.92000
   74,'74          ', 345.0000,1,   1,   1,   1,1.02021, -11.0122, 1.06000, 0.92000, 1.06000, 0.92000
   75,'75          ', 138.0000,1,   1,   1,   1,1.00861, -12.3993, 1.06000, 0.92000, 1.06000, 0.92000
   76,'76          ', 345.0000,2,   1,   1,   1,1.02000,  -7.1852, 1.10000, 0.98000, 1.10000, 0.98000
   77,'77          ', 138.0000,1,   1,   1,   1,1.01236, -37.4474, 1.06000, 0.92000, 1.06000, 0.92000
   78,'78          ', 345.0000,2,   1,   1,   1,1.04971, -36.1416, 1.10000, 0.98000, 1.10000, 0.98000
   79,'79          ', 345.0000,1,   1,   1,   1,1.07845, -41.1567, 1.06000, 0.92000, 1.06000, 0.92000
   80,'80          ', 345.0000,2,   1,   1,   1,1.02000, -38.4141, 1.10000, 0.98000, 1.10000, 0.98000
   81,'81          ', 345.0000,1,   1,   1,   1,1.02225, -37.8820, 1.06000, 0.92000, 1.06000, 0.92000
   82,'82          ', 345.0000,2,   1,   1,   1,1.02000, -34.9160, 1.10000, 0.98000, 1.10000, 0.98000
   83,'83          ', 345.0000,1,   1,   1,   1,1.03025, -36.1740, 1.06000, 0.92000, 1.06000, 0.92000
   84,'84          ', 138.0000,2,   1,   1,   1,1.02739, -36.4291, 1.10000, 0.98000, 1.10000, 0.98000
   85,'85          ', 230.0000,1,   1,   1,   1,1.01280, -36.1423, 1.06000, 0.92000, 1.06000, 0.92000
   86,'86          ', 138.0000,1,   1,   1,   1,1.00466, -35.9607, 1.06000, 0.92000, 1.06000, 0.92000
   87,'87          ', 345.0000,1,   1,   1,   1,1.07379, -41.3265, 1.06000, 0.92000, 1.06000, 0.92000
   88,'88          ', 138.0000,1,   1,   1,   1,1.01672, -34.5531, 1.06000, 0.92000, 1.06000, 0.92000
   89,'89          ', 138.0000,1,   1,   1,   1,0.99074, -39.9908, 1.06000, 0.92000, 1.06000, 0.92000
   90,'90          ', 230.0000,1,   1,   1,   1,0.98732, -10.4578, 1.06000, 0.92000, 1.06000, 0.92000
   91,'91          ', 230.0000,1,   1,   1,   1,0.98010, -11.6000, 1.06000, 0.92000, 1.06000, 0.92000
   92,'92          ', 345.0000,1,   1,   1,   1,1.00582, -10.9801, 1.06000, 0.92000, 1.06000, 0.92000
   93,'93          ', 345.0000,1,   1,   1,   1,1.00556, -12.1821, 1.06000, 0.92000, 1.06000, 0.92000
   94,'94          ', 138.0000,1,   1,   1,   1,1.00646, -17.0991, 1.06000, 0.92000, 1.06000, 0.92000
   95,'95          ', 138.0000,1,   1,   1,   1,1.00198, -16.4734, 1.06000, 0.92000, 1.06000, 0.92000
   96,'96          ', 138.0000,1,   1,   1,   1,1.00387, -16.1794, 1.06000, 0.92000, 1.06000, 0.92000
   97,'97          ', 345.0000,1,   1,   1,   1,1.00967, -13.5177, 1.06000, 0.92000, 1.06000, 0.92000
   98,'98          ', 345.0000,1,   1,   1,   1,1.01851, -13.0266, 1.06000, 0.92000, 1.06000, 0.92000
   99,'99          ', 345.0000,1,   1,   1,   1,1.00073, -16.1467, 1.06000, 0.92000, 1.06000, 0.92000
  100,'100         ', 138.0000,1,   1,   1,   1,1.00053,  -7.3445, 1.06000, 0.92000, 1.06000, 0.92000
  101,'101         ', 345.0000,1,   1,   1,   1,1.00423, -12.3982, 1.06000, 0.92000, 1.06000, 0.92000
  102,'102         ', 138.0000,1,   1,   1,   1,1.00029, -17.9293, 1.06000, 0.92000, 1.06000, 0.92000
  103,'103         ', 138.0000,2,   1,   1,   1,1.02000, -15.6183, 1.10000, 0.98000, 1.10000, 0.98000
  104,'104         ', 138.0000,1,   1,   1,   1,0.98929, -19.5819, 1.06000, 0.92000, 1.06000, 0.92000
  105,'105         ', 138.0000,1,   1,   1,   1,0.99403, -19.0655, 1.06000, 0.92000, 1.06000, 0.92000
  106,'106         ', 138.0000,1,   1,   1,   1,0.98399, -21.9313, 1.06000, 0.92000, 1.06000, 0.92000
  107,'107         ', 138.0000,1,   1,   1,   1,0.98361, -21.3504, 1.06000, 0.92000, 1.06000, 0.92000
  108,'108         ', 230.0000,1,   1,   1,   1,0.98968, -19.8902, 1.06000, 0.92000, 1.06000, 0.92000
  109,'109         ', 138.0000,1,   1,   1,   1,0.97427, -24.6035, 1.06000, 0.92000, 1.06000, 0.92000
  110,'110         ', 138.0000,1,   1,   1,   1,0.99410, -18.9292, 1.06000, 0.92000, 1.06000, 0.92000
  111,'111         ', 345.0000,1,   1,   1,   1,0.99152, -19.5009, 1.06000, 0.92000, 1.06000, 0.92000
  112,'112         ', 138.0000,1,   1,   1,   1,0.98450, -20.5521, 1.06000, 0.92000, 1.06000, 0.92000
  113,'113         ', 138.0000,1,   1,   1,   1,0.97936, -21.1220, 1.06000, 0.92000, 1.06000, 0.92000
  114,'114         ', 138.0000,1,   1,   1,   1,0.99682, -18.2284, 1.06000, 0.92000, 1.06000, 0.92000
  115,'115         ', 345.0000,1,   1,   1,   1,1.00747, -10.7053, 1.06000, 0.92000, 1.06000, 0.92000
  116,'116         ', 230.0000,1,   1,   1,   1,0.97986, -26.7085, 1.06000, 0.92000, 1.06000, 0.92000
  117,'117         ', 138.0000,1,   1,   1,   1,0.98902, -26.7105, 1.06000, 0.92000, 1.06000, 0.92000
  118,'118         ', 138.0000,1,   1,   1,   1,0.99269, -19.7815, 1.06000, 0.92000, 1.06000, 0.92000
  119,'119         ', 138.0000,1,   1,   1,   1,0.98937, -20.5921, 1.06000, 0.92000, 1.06000, 0.92000
  120,'120         ', 230.0000,2,   1,   1,   1,0.98193, -24.6626, 1.10000, 0.98000, 1.10000, 0.98000
  121,'121         ', 230.0000,1,   1,   1,   1,0.97926, -24.9803, 1.06000, 0.92000, 1.06000, 0.92000
  122,'122         ', 138.0000,1,   1,   1,   1,0.97565, -26.6399, 1.06000, 0.92000, 1.06000, 0.92000
  123,'123         ', 230.0000,1,   1,   1,   1,0.98263, -27.3090, 1.06000, 0.92000, 1.06000, 0.92000
  124,'124         ', 230.0000,1,   1,   1,   1,0.99020, -23.0610, 1.06000, 0.92000, 1.06000, 0.92000
  125,'125         ', 138.0000,1,   1,   1,   1,0.99647, -18.5143, 1.06000, 0.92000, 1.06000, 0.92000
  126,'126         ', 230.0000,1,   1,   1,   1,0.97881, -24.9553, 1.06000, 0.92000, 1.06000, 0.92000
  127,'127         ', 230.0000,1,   1,   1,   1,0.98254, -25.3893, 1.06000, 0.92000, 1.06000, 0.92000
  128,'128         ', 138.0000,2,   1,   1,   1,1.02000,  -9.3926, 1.10000, 0.98000, 1.10000, 0.98000
  129,'129         ', 138.0000,1,   1,   1,   1,0.99495, -18.1004, 1.06000, 0.92000, 1.06000, 0.92000
  130,'130         ', 138.0000,2,   1,   1,   1,1.02000, -12.7816, 1.10000, 0.98000, 1.10000, 0.98000
  131,'131         ', 138.0000,1,   1,   1,   1,0.98920, -19.9843, 1.06000, 0.92000, 1.06000, 0.92000
  132,'132         ', 230.0000,1,   1,   1,   1,1.00252, -18.6598, 1.06000, 0.92000, 1.06000, 0.92000
  133,'133         ', 230.0000,1,   1,   1,   1,1.00019, -19.5663, 1.06000, 0.92000, 1.06000, 0.92000
  134,'134         ', 230.0000,1,   1,   1,   1,1.00006, -18.3586, 1.06000, 0.92000, 1.06000, 0.92000
  135,'135         ', 345.0000,1,   1,   1,   1,1.01332, -15.3291, 1.06000, 0.92000, 1.06000, 0.92000
  136,'136         ', 138.0000,1,   1,   1,   1,0.99119, -19.3096, 1.06000, 0.92000, 1.06000, 0.92000
  137,'137         ', 345.0000,1,   1,   1,   1,1.01748, -14.4041, 1.06000, 0.92000, 1.06000, 0.92000
  138,'138         ', 345.0000,1,   1,   1,   1,0.99734, -17.1529, 1.06000, 0.92000, 1.06000, 0.92000
  139,'139         ', 345.0000,1,   1,   1,   1,1.02875, -18.4251, 1.06000, 0.92000, 1.06000, 0.92000
  140,'140         ', 138.0000,1,   1,   1,   1,1.00652,  -6.5072, 1.06000, 0.92000, 1.06000, 0.92000
  141,'141         ', 345.0000,2,   1,   1,   1,1.02000,  -4.3692, 1.10000, 0.98000, 1.10000, 0.98000
  142,'142         ', 230.0000,1,   1,   1,   1,0.99478, -21.7210, 1.06000, 0.92000, 1.06000, 0.92000
  143,'143         ', 230.0000,2,   1,   1,   1,1.02000, -10.8120, 1.10000, 0.98000, 1.10000, 0.98000
  144,'144         ', 230.0000,1,   1,   1,   1,1.01476, -11.6576, 1.06000, 0.92000, 1.06000, 0.92000
  145,'145         ', 138.0000,1,   1,   1,   1,1.00423, -12.3239, 1.06000, 0.92000, 1.06000, 0.92000
  146,'146         ', 345.0000,2,   1,   1,   1,1.02000, -13.9013, 1.10000, 0.98000, 1.10000, 0.98000
  147,'147         ', 138.0000,1,   1,   1,   1,0.98863, -20.3094, 1.06000, 0.92000, 1.06000, 0.92000
  148,'148         ', 345.0000,1,   1,   1,   1,1.00628, -11.7415, 1.06000, 0.92000, 1.06000, 0.92000
  149,'149         ', 138.0000,2,   1,   1,   1,1.02000, -10.5464, 1.10000, 0.98000, 1.10000, 0.98000
  150,'150         ', 345.0000,1,   1,   1,   1,1.01398, -13.3722, 1.06000, 0.92000, 1.06000, 0.92000
  151,'151         ', 345.0000,1,   1,   1,   1,1.01832, -14.2939, 1.06000, 0.92000, 1.06000, 0.92000
  152,'152         ', 138.0000,1,   1,   1,   1,0.98254, -20.7208, 1.06000, 0.92000, 1.06000, 0.92000
  153,'153         ', 345.0000,1,   1,   1,   1,1.01132, -15.7440, 1.06000, 0.92000, 1.06000, 0.92000
  154,'154         ', 230.0000,1,   1,   1,   1,1.00448, -33.3682, 1.06000, 0.92000, 1.06000, 0.92000
  155,'155         ', 138.0000,1,   1,   1,   1,0.99133, -35.0982, 1.06000, 0.92000, 1.06000, 0.92000
  156,'156         ', 345.0000,1,   1,   1,   1,1.01046, -31.1557, 1.06000, 0.92000, 1.06000, 0.92000
  157,'157         ', 138.0000,2,   1,   1,   1,0.99599, -30.6938, 1.10000, 0.98000, 1.10000, 0.98000
  158,'158         ', 138.0000,1,   1,   1,   1,1.00380, -29.2068, 1.06000, 0.92000, 1.06000, 0.92000
  159,'159         ', 345.0000,1,   1,   1,   1,1.02087, -28.2692, 1.06000, 0.92000, 1.06000, 0.92000
  160,'160         ', 230.0000,1,   1,   1,   1,0.99837, -32.5481, 1.06000, 0.92000, 1.06000, 0.92000
  161,'161         ', 138.0000,1,   1,   1,   1,1.00928, -29.7558, 1.06000, 0.92000, 1.06000, 0.92000
  162,'162         ', 345.0000,2,   1,   1,   1,1.02000, -26.8795, 1.10000, 0.98000, 1.10000, 0.98000
  163,'163         ', 230.0000,1,   1,   1,   1,1.00567, -28.1721, 1.06000, 0.92000, 1.06000, 0.92000
  164,'164         ', 138.0000,1,   1,   1,   1,0.99068, -27.9776, 1.06000, 0.92000, 1.06000, 0.92000
  165,'165         ', 230.0000,2,   1,   1,   1,1.00663, -27.3855, 1.10000, 0.98000, 1.10000, 0.98000
  166,'166         ', 138.0000,2,   1,   1,   1,1.02000, -26.8174, 1.10000, 0.98000, 1.10000, 0.98000
  167,'167         ', 345.0000,1,   1,   1,   1,1.04978, -35.7097, 1.06000, 0.92000, 1.06000, 0.92000
  168,'168         ', 230.0000,1,   1,   1,   1,0.99998, -20.4189, 1.06000, 0.92000, 1.06000, 0.92000
  169,'169         ', 138.0000,1,   1,   1,   1,1.00187, -32.8754, 1.06000, 0.92000, 1.06000, 0.92000
  170,'170         ', 138.0000,1,   1,   1,   1,0.98513,  -8.2643, 1.06000, 0.92000, 1.06000, 0.92000
  171,'171         ', 138.0000,1,   1,   1,   1,0.98970,  -8.1294, 1.06000, 0.92000, 1.06000, 0.92000
  172,'172         ', 138.0000,1,   1,   1,   1,0.99750,  -6.1301, 1.06000, 0.92000, 1.06000, 0.92000
  173,'173         ', 138.0000,1,   1,   1,   1,0.99762,  -5.6541, 1.06000, 0.92000, 1.06000, 0.92000
  174,'174         ', 345.0000,1,   1,   1,   1,1.01966,  -9.6218, 1.06000, 0.92000, 1.06000, 0.92000
  175,'175         ', 138.0000,2,   1,   1,   1,1.02000,  -9.7078, 1.10000, 0.98000, 1.10000, 0.98000
  176,'176         ', 345.0000,2,   1,   1,   1,1.01646, -14.4218, 1.10000, 0.98000, 1.10000, 0.98000
  177,'177         ', 230.0000,1,   1,   1,   1,1.01513, -10.6172, 1.06000, 0.92000, 1.06000, 0.92000
  178,'178         ', 138.0000,1,   1,   1,   1,1.00914, -12.7481, 1.06000, 0.92000, 1.06000, 0.92000
  179,'179         ', 138.0000,1,   1,   1,   1,1.00862, -12.7886, 1.06000, 0.92000, 1.06000, 0.92000
  180,'180         ', 345.0000,1,   1,   1,   1,1.01980,  -9.6576, 1.06000, 0.92000, 1.06000, 0.92000
  181,'181         ', 345.0000,1,   1,   1,   1,1.03576, -10.7835, 1.06000, 0.92000, 1.06000, 0.92000
  182,'182         ', 345.0000,1,   1,   1,   1,1.02191, -11.0012, 1.06000, 0.92000, 1.06000, 0.92000
  183,'183         ', 345.0000,1,   1,   1,   1,1.02132, -10.3308, 1.06000, 0.92000, 1.06000, 0.92000
  184,'184         ', 230.0000,1,   1,   1,   1,1.01728,  -8.4550, 1.06000, 0.92000, 1.06000, 0.92000
  185,'185         ', 345.0000,1,   1,   1,   1,1.01721,  -7.0310, 1.06000, 0.92000, 1.06000, 0.92000
  186,'186         ', 345.0000,1,   1,   1,   1,1.01959,  -9.8416, 1.06000, 0.92000, 1.06000, 0.92000
  187,'187         ', 345.0000,1,   1,   1,   1,1.02362,  -8.2077, 1.06000, 0.92000, 1.06000, 0.92000
  188,'188         ', 345.0000,1,   1,   1,   1,1.01996,  -2.6731, 1.06000, 0.92000, 1.06000, 0.92000
  189,'189         ', 345.0000,1,   1,   1,   1,1.01954,  -3.1664, 1.06000, 0.92000, 1.06000, 0.92000
  190,'190         ', 345.0000,1,   1,   1,   1,1.02185,  -6.7278, 1.06000, 0.92000, 1.06000, 0.92000
  191,'191         ', 345.0000,1,   1,   1,   1,1.02094,  -9.0733, 1.06000, 0.92000, 1.06000, 0.92000
  192,'192         ', 230.0000,1,   1,   1,   1,1.01871, -12.2715, 1.06000, 0.92000, 1.06000, 0.92000
  193,'193         ', 345.0000,1,   1,   1,   1,1.02185, -12.2528, 1.06000, 0.92000, 1.06000, 0.92000
  194,'194         ', 345.0000,1,   1,   1,   1,1.02027, -14.4038, 1.06000, 0.92000, 1.06000, 0.92000
  195,'195         ', 230.0000,1,   1,   1,   1,0.99441, -19.0869, 1.06000, 0.92000, 1.06000, 0.92000
  196,'196         ', 345.0000,1,   1,   1,   1,0.99543, -17.9152, 1.06000, 0.92000, 1.06000, 0.92000
  197,'197         ', 230.0000,1,   1,   1,   1,1.00472, -17.0349, 1.06000, 0.92000, 1.06000, 0.92000
  198,'198         ', 345.0000,1,   1,   1,   1,1.00479, -15.9850, 1.06000, 0.92000, 1.06000, 0.92000
  199,'199         ', 345.0000,1,   1,   1,   1,1.00915, -10.3624, 1.06000, 0.92000, 1.06000, 0.92000
  200,'200         ', 345.0000,1,   1,   1,   1,1.01857, -11.2656, 1.06000, 0.92000, 1.06000, 0.92000
...
0 / END OF BUS DATA, BEGIN LOAD DATA
    1,'1 ',1,   1,   1,     0.000,     0.000,     0.000,     0.000,     0.000,     0.000,   1,1
    2,'1 ',1,   1,   1,    62.892,    18.155,     0.000,     0.000,     0.000,     0.000,   1,1
    3,'1 ',1,   1,   1,     0.000,     0.000,     0.000,     0.000,     0.000,     0.000,   1,1
    4,'1 ',1,   1,   1,    45.229,    11.522,     0.000,     0.000,     0.000,     0.000,   1,1
    5,'1 ',1,   1,   1,    46.382,    15.333,     0.000,     0.000,     0.000,     0.000,   1,1
    6,'1 ',1,   1,   1,    42.241,    12.715,     0.000,     0.000,     0.000,     0.000,   1,1
    7,'1 ',1,   1,   1,    65.488,    21.703,     0.000,     0.000,     0.000,     0.000,   1,1
    8,'1 ',1,   1,   1,    62.488,    17.947,     0.000,     0.000,     0.000,     0.000,   1,1
    9,'1 ',1,   1,   1,     0.000,     0.000,     0.000,     0.000,     0.000,     0.000,   1,1
   10,'1 ',1,   1,   1,    43.873,    13.784,     0.000,     0.000,     0.000,     0.000,   1,1
   11,'1 ',1,   1,   1,     0.000,     0.000,     0.000,     0.000,     0.000,     0.000,   1,1
   12,'1 ',1,   1,   1,     1.310,     0.385,     0.000,     0.000,     0.000,     0.000,   1,1
   13,'1 ',1,   1,   1,     0.000,     0.000,     0.000,     0.000,     0.000,     0.000,   1,1
   14,'1 ',1,   1,   1,    60.647,    16.723,     0.000,     0.000,     0.000,     0.000,   1,1
   15,'1 ',1,   1,   1,    76.321,    16.386,     0.000,     0.000,     0.000,     0.000,   1,1
   16,'1 ',1,   1,   1,    95.064,    19.647,     0.000,     0.000,     0.000,     0.000,   1,1
   17,'1 ',1,   1,   1,    43.403,    12.868,     0.000,     0.000,     0.000,     0.000,   1,1
   18,'1 ',1,   1,   1,    51.760,    14.126,     0.000,     0.000,     0.000,     0.000,   1,1
   19,'1 ',1,   1,   1,    54.509,    14.837,     0.000,     0.000,     0.000,     0.000,   1,1
   20,'1 ',1,   1,   1,    51.633,    16.437,     0.000,     0.000,     0.000,     0.000,   1,1
   21,'1 ',1,   1,   1,    80.484,    17.852,     0.000,     0.000,     0.000,     0.000,   1,1
   22,'1 ',1,   1,   1,    70.044,    18.256,     0.000,     0.000,     0.000,     0.000,   1,1
   23,'1 ',1,   1,   1,    49.728,    12.605,     0.000,     0.000,     0.000,     0.000,   1,1
   24,'1 ',1,   1,   1,    58.224,    16.826,     0.000,     0.000,     0.000,     0.000,   1,1
   25,'1 ',1,   1,   1,    43.459,    10.608,     0.000,     0.000,     0.000,     0.000,   1,1
   26,'1 ',1,   1,   1,    52.465,    14.175,     0.000,     0.000,     0.000,     0.000,   1,1
   27,'1 ',1,   1,   1,    46.765,    14.290,     0.000,     0.000,     0.000,     0.000,   1,1
   28,'1 ',1,   1,   1,    83.897,    24.907,     0.000,     0.000,     0.000,     0.000,   1,1
   29,'1 ',1,   1,   1,    48.582,    10.995,     0.000,     0.000,     0.000,     0.000,   1,1
   30,'1 ',1,   1,   1,     0.000,     0.000,     0.000,     0.000,     0.000,     0.000,   1,1
   31,'1 ',1,   1,   1,     0.000,     0.000,     0.000,     0.000,     0.000,     0.000,   1,1
   32,'1 ',1,   1,   1,     0.000,     0.000,     0.000,     0.000,     0.000,     0.000,   1,1
   33,'1 ',1,   1,   1,    75.686,    16.359,     0.000,     0.000,     0.000,     0.000,   1,1
   34,'1 ',1,   1,   1,    40.492,    12.538,     0.000,     0.000,     0.000,     0.000,   1,1
   35,'1 ',1,   1,   1,     0.000,     0.000,     0.000,     0.000,     0.000,     0.000,   1,1
   36,'1 ',1,   1,   1,     0.000,     0.000,     0.000,     0.000,     0.000,     0.000,   1,1
   37,'1 ',1,   1,   1,     0.000,     0.000,     0.000,     0.000,     0.000,     0.000,   1,1
   38,'1 ',1,   1,   1,     0.000,     0.000,     0.000,     0.000,     0.000,     0.000,   1,1
   39,'1 ',1,   1,   1,    47.538,    13.970,     0.000,     0.000,     0.000,     0.000,   1,1
   40,'1 ',1,   1,   1,    49.308,    14.659,     0.000,     0.000,     0.000,     0.000,   1,1
   41,'1 ',1,   1,   1,    67.258,    16.674,     0.000,     0.000,     0.000,     0.000,   1,1
   42,'1 ',1,   1,   1,    75.632,    20.816,     0.000,     0.000,     0.000,     0.000,   1,1
   43,'1 ',1,   1,   1,    64.448,    21.612,     0.000,     0.000,     0.000,     0.000,   1,1
   44,'1 ',1,   1,   1,    39.560,    12.867,     0.000,     0.000,     0.000,     0.000,   1,1
   45,'1 ',1,   1,   1,    62.713,    16.989,     0.000,     0.000,     0.000,     0.000,   1,1
   46,'1 ',1,   1,   1,    55.810,    14.496,     0.000,     0.000,     0.000,     0.000,   1,1
   47,'1 ',1,   1,   1,    48.590,    13.673,     0.000,     0.000,     0.000,     0.000,   1,1
   48,'1 ',1,   1,   1,    61.020,    15.452,     0.000,     0.000,     0.000,     0.000,   1,1
   49,'1 ',1,   1,   1,    34.842,     9.560,     0.000,     0.000,     0.000,     0.000,   1,1
   50,'1 ',1,   1,   1,    59.092,    15.450,     0.000,     0.000,     0.000,     0.000,   1,1
   51,'1 ',1,   1,   1,    46.828,    13.392,     0.000,     0.000,     0.000,     0.000,   1,1
   52,'1 ',1,   1,   1,    63.893,    19.463,     0.000,     0.000,     0.000,     0.000,   1,1
   53,'1 ',1,   1,   1,   100.292,    23.787,     0.000,     0.000,     0.000,     0.000,   1,1
   54,'1 ',1,   1,   1,    35.227,    11.343,     0.000,     0.000,     0.000,     0.000,   1,1
   55,'1 ',1,   1,   1,    60.235,    17.480,     0.000,     0.000,     0.000,     0.000,   1,1
   56,'1 ',1,   1,   1,    69.964,    14.861,     0.000,     0.000,     0.000,     0.000,   1,1
   57,'1 ',1,   1,   1,    30.804,    10.526,     0.000,     0.000,     0.000,     0.000,   1,1
   58,'1 ',1,   1,   1,    80.240,    24.231,     0.000,     0.000,     0.000,     0.000,   1,1
   59,'1 ',1,   1,   1,    45.222,    14.370,     0.000,     0.000,     0.000,     0.000,   1,1
   60,'1 ',1,   1,   1,    52.926,    16.322,     0.000,     0.000,     0.000,     0.000,   1,1
   61,'1 ',1,   1,   1,    65.366,    17.336,     0.000,     0.000,     0.000,     0.000,   1,1
   62,'1 ',1,   1,   1,    61.158,    15.882,     0.000,     0.000,     0.000,     0.000,   1,1
   63,'1 ',1,   1,   1,    43.936,    13.643,     0.000,     0.000,     0.000,     0.000,   1,1
   64,'1 ',1,   1,   1,   106.210,    28.813,     0.000,     0.000,     0.000,     0.000,   1,1
   65,'1 ',1,   1,   1,    36.166,    11.595,     0.000,     0.000,     0.000,     0.000,   1,1
   66,'1 ',1,   1,   1,    43.014,    12.805,     0.000,     0.000,     0.000,     0.000,   1,1
   67,'1 ',1,   1,   1,    54.712,    13.555,     0.000,     0.000,     0.000,     0.000,   1,1
   68,'1 ',1,   1,   1,    68.045,    20.374,     0.000,     0.000,     0.000,     0.000,   1,1
   69,'1 ',1,   1,   1,    32.889,    10.611,     0.000,     0.000,     0.000,     0.000,   1,1
   70,'1 ',1,   1,   1,    51.414,    14.235,     0.000,     0.000,     0.000,     0.000,   1,1
   71,'1 ',1,   1,   1,    37.728,    11.510,     0.000,     0.000,     0.000,     0.000,   1,1
   72,'1 ',1,   1,   1,    32.689,    11.338,     0.000,     0.000,     0.000,     0.000,   1,1
   73,'1 ',1,   1,   1,    41.506,    12.216,     0.000,     0.000,     0.000,     0.000,   1,1
   74,'1 ',1,   1,   1,    45.724,    15.222,     0.000,     0.000,     0.000,     0.000,   1,1
   75,'1 ',1,   1,   1,    49.945,    16.971,     0.000,     0.000,     0.000,     0.000,   1,1
   76,'1 ',1,   1,   1,    73.262,    19.288,     0.000,     0.000,     0.000,     0.000,   1,1
   77,'1 ',1,   1,   1,    50.148,    13.565,     0.000,     0.000,     0.000,     0.000,   1,1
   78,'1 ',1,   1,   1,    63.122,    16.214,     0.000,     0.000,     0.000,     0.000,   1,1
   79,'1 ',1,   1,   1,    86.142,    23.000,     0.000,     0.000,     0.000,     0.000,   1,1
   80,'1 ',1,   1,   1,    68.858,    15.730,     0.000,     0.000,     0.000,     0.000,   1,1
   81,'1 ',1,   1,   1,    74.304,    19.945,     0.000,     0.000,     0.000,     0.000,   1,1
   82,'1 ',1,   1,   1,    48.594,    13.188,     0.000,     0.000,     0.000,     0.000,   1,1
   83,'1 ',1,   1,   1,    51.234,    16.344,     0.000,     0.000,     0.000,     0.000,   1,1
   84,'1 ',1,   1,   1,    37.572,    11.359,     0.000,     0.000,     0.000,     0.000,   1,1
   85,'1 ',1,   1,   1,    42.870,    10.377,     0.000,     0.000,     0.000,     0.000,   1,1
   86,'1 ',1,   1,   1,    71.740,    17.345,     0.000,     0.000,     0.000,     0.000,   1,1
   87,'1 ',1,   1,   1,    81.134,    21.276,     0.000,     0.000,     0.000,     0.000,   1,1
   88,'1 ',1,   1,   1,    62.032,    15.475,     0.000,     0.000,     0.000,     0.000,   1,1
   89,'1 ',1,   1,   1,    46.771,    14.350,     0.000,     0.000,     0.000,     0.000,   1,1
   90,'1 ',1,   1,   1,    38.535,    11.136,     0.000,     0.000,     0.000,     0.000,   1,1
   91,'1 ',1,   1,   1,    50.827,    13.349,     0.000,     0.000,     0.000,     0.000,   1,1
   92,'1 ',1,   1,   1,    46.956,    13.429,     0.000,     0.000,     0.000,     0.000,   1,1
   93,'1 ',1,   1,   1,    53.900,    14.698,     0.000,     0.000,     0.000,     0.000,   1,1
   94,'1 ',1,   1,   1,    70.104,    18.966,     0.000,     0.000,     0.000,     0.000,   1,1
   95,'1 ',1,   1,   1,    61.674,    17.739,     0.000,     0.000,     0.000,     0.000,   1,1
   96,'1 ',1,   1,   1,    73.488,    16.717,     0.000,     0.000,     0.000,     0.000,   1,1
   97,'1 ',1,   1,   1,    72.544,    14.025,     0.000,     0.000,     0.000,     0.000,   1,1
   98,'1 ',1,   1,   1,    74.220,    21.857,     0.000,     0.000,     0.000,     0.000,   1,1
   99,'1 ',1,   1,   1,    71.590,    13.424,     0.000,     0.000,     0.000,     0.000,   1,1
  100,'1 ',1,   1,   1,    51.777,    14.211,     0.000,     0.000,     0.000,     0.000,   1,1
  101,'1 ',1,   1,   1,    49.247,    13.125,     0.000,     0.000,     0.000,     0.000,   1,1
  102,'1 ',1,   1,   1,    28.951,    10.127,     0.000,     0.000,     0.000,     0.000,   1,1
  103,'1 ',1,   1,   1,    84.034,    24.340,     0.000,     0.000,     0.000,     0.000,   1,1
  104,'1 ',1,   1,   1,    59.041,    13.101,     0.000,     0.000,     0.000,     0.000,   1,1
  105,'1 ',1,   1,   1,    41.286,    10.691,     0.000,     0.000,     0.000,     0.000,   1,1
  106,'1 ',1,   1,   1,    40.578,    12.950,     0.000,     0.000,     0.000,     0.000,   1,1
  107,'1 ',1,   1,   1,    50.324,    12.302,     0.000,     0.000,     0.000,     0.000,   1,1
  108,'1 ',1,   1,   1,    91.104,    20.748,     0.000,     0.000,     0.000,     0.000,   1,1
  109,'1 ',1,   1,   1,    62.949,    18.266,     0.000,     0.000,     0.000,     0.000,   1,1
  110,'1 ',1,   1,   1,    30.272,     9.383,     0.000,     0.000,     0.000,     0.000,   1,1
  111,'1 ',1,   1,   1,    61.506,    15.365,     0.000,     0.000,     0.000,     0.000,   1,1
  112,'1 ',1,   1,   1,    87.224,    21.242,     0.000,     0.000,     0.000,     0.000,   1,1
  113,'1 ',1,   1,   1,    28.675,     8.363,     0.000,     0.000,     0.000,     0.000,   1,1
  114,'1 ',1,   1,   1,    30.657,    10.129,     0.000,     0.000,     0.000,     0.000,   1,1
  115,'1 ',1,   1,   1,    35.715,     9.588,     0.000,     0.000,     0.000,     0.000,   1,1
  116,'1 ',1,   1,   1,    78.191,    18.232,     0.000,     0.000,     0.000,     0.000,   1,1
  117,'1 ',1,   1,   1,    56.313,    14.659,     0.000,     0.000,     0.000,     0.000,   1,1
  118,'1 ',1,   1,   1,    29.950,     8.976,     0.000,     0.000,     0.000,     0.000,   1,1
  119,'1 ',1,   1,   1,    73.414,    17.086,     0.000,     0.000,     0.000,     0.000,   1,1
  120,'1 ',1,   1,   1,    41.290,    11.618,     0.000,     0.000,     0.000,     0.000,   1,1
  121,'1 ',1,   1,   1,    52.661,    12.859,     0.000,     0.000,     0.000,     0.000,   1,1
  122,'1 ',1,   1,   1,    41.540,    10.418,     0.000,     0.000,     0.000,     0.000,   1,1
  123,'1 ',1,   1,   1,    65.750,    13.409,     0.000,     0.000,     0.000,     0.000,   1,1
  124,'1 ',1,   1,   1,    66.553,    16.626,     0.000,     0.000,     0.000,     0.000,   1,1
  125,'1 ',1,   1,   1,    69.847,    19.755,     0.000,     0.000,     0.000,     0.000,   1,1
  126,'1 ',1,   1,   1,    56.404,    16.091,     0.000,     0.000,     0.000,     0.000,   1,1
  127,'1 ',1,   1,   1,    66.298,    16.054,     0.000,     0.000,     0.000,     0.000,   1,1
  128,'1 ',1,   1,   1,    72.942,    16.149,     0.000,     0.000,     0.000,     0.000,   1,1
  129,'1 ',1,   1,   1,    51.466,    13.697,     0.000,     0.000,     0.000,     0.000,   1,1
  130,'1 ',1,   1,   1,    57.387,    16.845,     0.000,     0.000,     0.000,     0.000,   1,1
  131,'1 ',1,   1,   1,    83.163,    15.870,     0.000,     0.000,     0.000,     0.000,   1,1
  132,'1 ',1,   1,   1,    75.748,    16.591,     0.000,     0.000,     0.000,     0.000,   1,1
  133,'1 ',1,   1,   1,    44.903,    11.738,     0.000,     0.000,     0.000,     0.000,   1,1
  134,'1 ',1,   1,   1,    54.841,    11.319,     0.000,     0.000,     0.000,     0.000,   1,1
  135,'1 ',1,   1,   1,    37.165,    12.034,     0.000,     0.000,     0.000,     0.000,   1,1
  136,'1 ',1,   1,   1,    47.798,    12.878,     0.000,     0.000,     0.000,     0.000,   1,1
  137,'1 ',1,   1,   1,    36.301,    12.225,     0.000,     0.000,     0.000,     0.000,   1,1
  138,'1 ',1,   1,   1,    71.142,    14.266,     0.000,     0.000,     0.000,     0.000,   1,1
  139,'1 ',1,   1,   1,    59.241,    16.601,     0.000,     0.000,     0.000,     0.000,   1,1
  140,'1 ',1,   1,   1,    83.308,    20.414,     0.000,     0.000,     0.000,     0.000,   1,1
  141,'1 ',1,   1,   1,    73.740,    18.720,     0.000,     0.000,     0.000,     0.000,   1,1
  142,'1 ',1,   1,   1,    45.222,    14.811,     0.000,     0.000,     0.000,     0.000,   1,1
  143,'1 ',1,   1,   1,    69.705,    17.042,     0.000,     0.000,     0.000,     0.000,   1,1
  144,'1 ',1,   1,   1,    85.232,    20.775,     0.000,     0.000,     0.000,     0.000,   1,1
  145,'1 ',1,   1,   1,    63.467,    18.053,     0.000,     0.000,     0.000,     0.000,   1,1
  146,'1 ',1,   1,   1,    67.638,    15.689,     0.000,     0.000,     0.000,     0.000,   1,1
  147,'1 ',1,   1,   1,    37.267,    11.724,     0.000,     0.000,     0.000,     0.000,   1,1
  148,'1 ',1,   1,   1,    46.496,    12.488,     0.000,     0.000,     0.000,     0.000,   1,1
  149,'1 ',1,   1,   1,    86.965,    20.387,     0.000,     0.000,     0.000,     0.000,   1,1
  150,'1 ',1,   1,   1,    59.451,    16.612,     0.000,     0.000,     0.000,     0.000,   1,1
  151,'1 ',1,   1,   1,    48.143,    12.901,     0.000,     0.000,     0.000,     0.000,   1,1
  152,'1 ',1,   1,   1,    37.478,    10.036,     0.000,     0.000,     0.000,     0.000,   1,1
  153,'1 ',1,   1,   1,    44.107,    12.655,     0.000,     0.000,     0.000,     0.000,   1,1
  154,'1 ',1,   1,   1,    56.491,    14.284,     0.000,     0.000,     0.000,     0.000,   1,1
  155,'1 ',1,   1,   1,    52.374,    14.266,     0.000,     0.000,     0.000,     0.000,   1,1
  156,'1 ',1,   1,   1,    53.511,    14.306,     0.000,     0.000,     0.000,     0.000,   1,1
  157,'1 ',1,   1,   1,    54.343,    14.440,     0.000,     0.000,     0.000,     0.000,   1,1
  158,'1 ',1,   1,   1,    53.915,    14.497,     0.000,     0.000,     0.000,     0.000,   1,1
  159,'1 ',1,   1,   1,    58.220,    16.749,     0.000,     0.000,     0.000,     0.000,   1,1
  160,'1 ',1,   1,   1,    69.007,    21.319,     0.000,     0.000,     0.000,     0.000,   1,1
  161,'1 ',1,   1,   1,    33.162,    10.315,     0.000,     0.000,     0.000,     0.000,   1,1
  162,'1 ',1,   1,   1,    50.550,    12.347,     0.000,     0.000,     0.000,     0.000,   1,1
  163,'1 ',1,   1,   1,    66.482,    16.102,     0.000,     0.000,     0.000,     0.000,   1,1
  164,'1 ',1,   1,   1,    46.161,    15.634,     0.000,     0.000,     0.000,     0.000,   1,1
  165,'1 ',1,   1,   1,    51.231,    14.502,     0.000,     0.000,     0.000,     0.000,   1,1
  166,'1 ',1,   1,   1,    48.153,    13.186,     0.000,     0.000,     0.000,     0.000,   1,1
  167,'1 ',1,   1,   1,    48.721,    12.823,     0.000,     0.000,     0.000,     0.000,   1,1
  168,'1 ',1,   1,   1,    29.882,     9.536,     0.000,     0.000,     0.000,     0.000,   1,1
  169,'1 ',1,   1,   1,    50.523,    13.869,     0.000,     0.000,     0.000,     0.000,   1,1
  170,'1 ',1,   1,   1,    58.800,    17.265,     0.000,     0.000,     0.000,     0.000,   1,1
  171,'1 ',1,   1,   1,    48.992,    15.022,     0.000,     0.000,     0.000,     0.000,   1,1
  172,'1 ',1,   1,   1,    59.497,    16.488,     0.000,     0.000,     0.000,     0.000,   1,1
  173,'1 ',1,   1,   1,    50.374,    15.253,     0.000,     0.000,     0.000,     0.000,   1,1
  174,'1 ',1,   1,   1,    64.189,    16.044,     0.000,     0.000,     0.000,     0.000,   1,1
  175,'1 ',1,   1,   1,    50.683,    16.593,     0.000,     0.000,     0.000,     0.000,   1,1
  176,'1 ',1,   1,   1,    63.146,    20.988,     0.000,     0.000,     0.000,     0.000,   1,1
  177,'1 ',1,   1,   1,    94.583,    27.337,     0.000,     0.000,     0.000,     0.000,   1,1
  178,'1 ',1,   1,   1,    46.998,    13.118,     0.000,     0.000,     0.000,     0.000,   1,1
  179,'1 ',1,   1,   1,     4.527,     1.170,     0.000,     0.000,     0.000,     0.000,   1,1
  180,'1 ',1,   1,   1,     6.985,     2.015,     0.000,     0.000,     0.000,     0.000,   1,1
  181,'1 ',1,   1,   1,     0.000,     0.000,     0.000,     0.000,     0.000,     0.000,   1,1
  182,'1 ',1,   1,   1,     0.000,     0.000,     0.000,     0.000,     0.000,     0.000,   1,1
  183,'1 ',1,   1,   1,     0.000,     0.000,     0.000,     0.000,     0.000,     0.000,   1,1
  184,'1 ',1,   1,   1,     0.000,     0.000,     0.000,     0.000,     0.000,     0.000,   1,1
  185,'1 ',1,   1,   1,     0.000,     0.000,     0.000,     0.000,     0.000,     0.000,   1,1
  186,'1 ',1,   1,   1,     0.000,     0.000,     0.000,     0.000,     0.000,     0.000,   1,1
  187,'1 ',1,   1,   1,     0.000,     0.000,     0.000,     0.000,     0.000,     0.000,   1,1
  188,'1 ',1,   1,   1,     0.000,     0.000,     0.000,     0.000,     0.000,     0.000,   1,1
  189,'1 ',1,   1,   1,     0.000,     0.000,     0.000,     0.000,     0.000,     0.000,   1,1
  190,'1 ',1,   1,   1,     0.000,     0.000,     0.000,     0.000,     0.000,     0.000,   1,1
  191,'1 ',1,   1,   1,     0.000,     0.000,     0.000,     0.000,     0.000,     0.000,   1,1
  192,'1 ',1,   1,   1,     0.000,     0.000,     0.000,     0.000,     0.000,     0.000,   1,1
  193,'1 ',1,   1,   1,     0.000,     0.000,     0.000,     0.000,     0.000,     0.000,   1,1
  194,'1 ',1,   1,   1,     0.000,     0.000,     0.000,     0.000,     0.000,     0.000,   1,1
  195,'1 ',1,   1,   1,     0.000,     0.000,     0.000,     0.000,     0.000,     0.000,   1,1
  196,'1 ',1,   1,   1,     0.000,     0.000,     0.000,     0.000,     0.000,     0.000,   1,1
  197,'1 ',1,   1,   1,     0.000,     0.000,     0.000,     0.000,     0.000,     0.000,   1,1
  198,'1 ',1,   1,   1,     0.000,     0.000,     0.000,     0.000,     0.000,     0.000,   1,1
  199,'1 ',1,   1,   1,     0.000,     0.000,     0.000,     0.000,     0.000,     0.000,   1,1
  200,'1 ',1,   1,   1,     0.000,     0.000,     0.000,     0.000,     0.000,     0.000,   1,1
...
0 / END OF LOAD DATA, BEGIN FIXED SHUNT DATA
0 / END OF FIXED SHUNT DATA, BEGIN GENERATOR DATA
    1,'1 ',     3.176,  -103.000,   103.000,  -103.000,1.02000,    0,   100.000,   0.00000,   1.00000,   0.00000,   0.00000,1.00000,1,  100.0,   338.000,     3.000,   1,1.0000,   0,1.0000,   0,1.0000,   0,1.0000,1, 1.0000
    3,'1 ',   315.506,   -43.595,   392.000,  -209.000,1.02000,    0,   100.000,   0.00000,   1.00000,   0.00000,   0.00000,1.00000,1,  100.0,   686.000,   298.000,   1,1.0000,   0,1.0000,   0,1.0000,   0,1.0000,0, 1.0000
    7,'1 ',   147.165,    29.564,   385.000,  -205.000,1.02000,    0,   100.000,   0.00000,   1.00000,   0.00000,   0.00000,1.00000,1,  100.0,   674.000,   139.000,   1,1.0000,   0,1.0000,   0,1.0000,   0,1.0000,0, 1.0000
    8,'1 ',   200.103,     1.055,   349.000,  -186.000,1.02000,    0,   100.000,   0.00000,   1.00000,   0.00000,   0.00000,1.00000,1,  100.0,   611.000,   189.000,   1,1.0000,   0,1.0000,   0,1.0000,   0,1.0000,0, 1.0000
   10,'1 ',  1626.960,    25.387,  1298.000,  -692.000,1.02000,    0,   100.000,   0.00000,   1.00000,   0.00000,   0.00000,1.00000,1,  100.0,  2271.000,  1406.000,   1,1.0000,   0,1.0000,   0,1.0000,   0,1.0000,0, 1.0000
   24,'1 ',   304.918,    57.622,   309.000,  -165.000,1.02000,    0,   100.000,   0.00000,   1.00000,   0.00000,   0.00000,1.00000,1,  100.0,   541.000,   288.000,   1,1.0000,   0,1.0000,   0,1.0000,   0,1.0000,0, 1.0000
   26,'1 ',   127.049,   -89.114,   171.000,   -91.000,1.02000,    0,   100.000,   0.00000,   1.00000,   0.00000,   0.00000,1.00000,1,  100.0,   300.000,   120.000,   1,1.0000,   0,1.0000,   0,1.0000,   0,1.0000,0, 1.0000
   28,'1 ',   228.689,    18.717,   338.000,  -180.000,1.02000,    0,   100.000,   0.00000,   1.00000,   0.00000,   0.00000,1.00000,1,  100.0,   592.000,   216.000,   1,1.0000,   0,1.0000,   0,1.0000,   0,1.0000,0, 1.0000
   30,'1 ',   132.343,   -66.256,   150.000,   -80.000,1.02000,    0,   100.000,   0.00000,   1.00000,   0.00000,   0.00000,1.00000,1,  100.0,   263.000,   125.000,   1,1.0000,   0,1.0000,   0,1.0000,   0,1.0000,0, 1.0000
   31,'1 ',   241.000,     6.913,   457.000,  -244.000,1.02000,    0,   100.000,   0.00000,   1.00000,   0.00000,   0.00000,1.00000,0,  100.0,   800.000,   241.000,   1,1.0000,   0,1.0000,   0,1.0000,   0,1.0000,0, 1.0000
   32,'1 ',   163.000,     2.554,   390.000,  -208.000,1.02000,    0,   100.000,   0.00000,   1.00000,   0.00000,   0.00000,1.00000,0,  100.0,   683.000,   163.000,   1,1.0000,   0,1.0000,   0,1.0000,   0,1.0000,0, 1.0000
   33,'1 ',   401.264,   166.542,   379.000,  -202.000,1.02000,    0,   100.000,   0.00000,   1.00000,   0.00000,   0.00000,1.00000,1,  100.0,   664.000,   379.000,   1,1.0000,   0,1.0000,   0,1.0000,   0,1.0000,0, 1.0000
   34,'1 ',   295.000,    54.852,   707.000,  -377.000,1.02000,    0,   100.000,   0.00000,   1.00000,   0.00000,   0.00000,1.00000,0,  100.0,  1237.000,   295.000,   1,1.0000,   0,1.0000,   0,1.0000,   0,1.0000,0, 1.0000
   35,'1 ',   978.279,   147.170,   792.000,  -422.000,1.02000,    0,   100.000,   0.00000,   1.00000,   0.00000,   0.00000,1.00000,1,  100.0,  1386.000,   924.000,   1,1.0000,   0,1.0000,   0,1.0000,   0,1.0000,0, 1.0000
   36,'1 ',   140.000,    19.442,   336.000,  -179.000,1.02000,    0,   100.000,   0.00000,   1.00000,   0.00000,   0.00000,1.00000,0,  100.0,   588.000,   140.000,   1,1.0000,   0,1.0000,   0,1.0000,   0,1.0000,0, 1.0000
   37,'1 ',   100.000,    -9.768,   324.000,  -173.000,1.02000,    0,   100.000,   0.00000,   1.00000,   0.00000,   0.00000,1.00000,0,  100.0,   567.000,   100.000,   1,1.0000,   0,1.0000,   0,1.0000,   0,1.0000,0, 1.0000
   38,'1 ',   208.000,   -28.057,   498.000,  -266.000,1.02000,    0,   100.000,   0.00000,   1.00000,   0.00000,   0.00000,1.00000,0,  100.0,   872.000,   208.000,   1,1.0000,   0,1.0000,   0,1.0000,   0,1.0000,0, 1.0000
   49,'1 ',   338.798,    21.692,   347.000,  -185.000,1.02000,    0,   100.000,   0.00000,   1.00000,   0.00000,   0.00000,1.00000,1,  100.0,   607.000,   320.000,   1,1.0000,   0,1.0000,   0,1.0000,   0,1.0000,0, 1.0000
   52,'1 ',   171.517,     1.347,   938.000,  -500.000,1.02000,    0,   100.000,   0.00000,   1.00000,   0.00000,   0.00000,1.00000,1,  100.0,  1642.000,   162.000,   1,1.0000,   0,1.0000,   0,1.0000,   0,1.0000,0, 1.0000
   54,'1 ',   220.219,    -0.335,   312.000,  -166.000,1.02000,    0,   100.000,   0.00000,   1.00000,   0.00000,   0.00000,1.00000,1,  100.0,   546.000,   208.000,   1,1.0000,   0,1.0000,   0,1.0000,   0,1.0000,0, 1.0000
   56,'1 ',   440.437,    16.678,   416.000,  -222.000,1.02000,    0,   100.000,   0.00000,   1.00000,   0.00000,   0.00000,1.00000,1,  100.0,   728.000,   416.000,   1,1.0000,   0,1.0000,   0,1.0000,   0,1.0000,0, 1.0000
   69,'1 ',   149.000,    13.799,   297.000,  -158.000,1.02000,    0,   100.000,   0.00000,   1.00000,   0.00000,   0.00000,1.00000,0,  100.0,   520.000,   149.000,   1,1.0000,   0,1.0000,   0,1.0000,   0,1.0000,0, 1.0000
   72,'1 ',    89.993,    72.995,   150.000,   -80.000,1.02000,    0,   100.000,   0.00000,   1.00000,   0.00000,   0.00000,1.00000,1,  100.0,   263.000,    85.000,   1,1.0000,   0,1.0000,   0,1.0000,   0,1.0000,0, 1.0000
   76,'1 ',   460.554,    31.029,   504.000,  -269.000,1.02000,    0,   100.000,   0.00000,   1.00000,   0.00000,   0.00000,1.00000,1,  100.0,   882.000,   435.000,   1,1.0000,   0,1.0000,   0,1.0000,   0,1.0000,0, 1.0000
   78,'1 ',   137.637,   -88.000,   165.000,   -88.000,1.02000,    0,   100.000,   0.00000,   1.00000,   0.00000,   0.00000,1.00000,1,  100.0,   288.000,   130.000,   1,1.0000,   0,1.0000,   0,1.0000,   0,1.0000,0, 1.0000
   80,'1 ',   119.638,  -144.198,   330.000,  -176.000,1.02000,    0,   100.000,   0.00000,   1.00000,   0.00000,   0.00000,1.00000,1,  100.0,   578.000,   113.000,   1,1.0000,   0,1.0000,   0,1.0000,   0,1.0000,0, 1.0000
   82,'1 ',   186.339,   -76.490,   179.000,   -95.000,1.02000,    0,   100.000,   0.00000,   1.00000,   0.00000,   0.00000,1.00000,1,  100.0,   313.000,   176.000,   1,1.0000,   0,1.0000,   0,1.0000,   0,1.0000,0, 1.0000
   84,'1 ',   169.000,   -73.241,   508.000,  -271.000,1.02000,    0,   100.000,   0.00000,   1.00000,   0.00000,   0.00000,1.00000,0,  100.0,   888.000,   169.000,   1,1.0000,   0,1.0000,   0,1.0000,   0,1.0000,0, 1.0000
  103,'1 ',   220.219,   118.141,   523.000,  -279.000,1.02000,    0,   100.000,   0.00000,   1.00000,   0.00000,   0.00000,1.00000,1,  100.0,   916.000,   208.000,   1,1.0000,   0,1.0000,   0,1.0000,   0,1.0000,0, 1.0000
  120,'1 ',   161.000,   128.794,   483.000,  -258.000,1.02000,    0,   100.000,   0.00000,   1.00000,   0.00000,   0.00000,1.00000,0,  100.0,   845.000,   161.000,   1,1.0000,   0,1.0000,   0,1.0000,   0,1.0000,0, 1.0000
  128,'1 ',   190.574,    -3.732,   216.000,  -115.000,1.02000,    0,   100.000,   0.00000,   1.00000,   0.00000,   0.00000,1.00000,1,  100.0,   378.000,   180.000,   1,1.0000,   0,1.0000,   0,1.0000,   0,1.0000,0, 1.0000
  130,'1 ',   121.756,    62.364,   153.000,   -81.000,1.02000,    0,   100.000,   0.00000,   1.00000,   0.00000,   0.00000,1.00000,1,  100.0,   267.000,   115.000,   1,1.0000,   0,1.0000,   0,1.0000,   0,1.0000,0, 1.0000
  141,'1 ',   928.518,   168.490,   967.000,  -515.000,1.02000,    0,   100.000,   0.00000,   1.00000,   0.00000,   0.00000,1.00000,1,  100.0,  1691.000,   877.000,   1,1.0000,   0,1.0000,   0,1.0000,   0,1.0000,0, 1.0000
  143,'1 ',   164.105,    39.806,   173.000,   -92.000,1.02000,    0,   100.000,   0.00000,   1.00000,   0.00000,   0.00000,1.00000,1,  100.0,   303.000,   155.000,   1,1.0000,   0,1.0000,   0,1.0000,   0,1.0000,0, 1.0000
  146,'1 ',   317.623,   146.270,   347.000,  -185.000,1.02000,    0,   100.000,   0.00000,   1.00000,   0.00000,   0.00000,1.00000,1,  100.0,   607.000,   300.000,   1,1.0000,   0,1.0000,   0,1.0000,   0,1.0000,0, 1.0000
  149,'1 ',   196.926,    13.443,   157.000,   -83.000,1.02000,    0,   100.000,   0.00000,   1.00000,   0.00000,   0.00000,1.00000,1,  100.0,   274.000,   186.000,   1,1.0000,   0,1.0000,   0,1.0000,   0,1.0000,0, 1.0000
  157,'1 ',   288.000,    -0.325,   298.000,  -159.000,1.02000,    0,   100.000,   0.00000,   1.00000,   0.00000,   0.00000,1.00000,0,  100.0,   521.000,   288.000,   1,1.0000,   0,1.0000,   0,1.0000,   0,1.0000,0, 1.0000
  162,'1 ',   243.511,   168.365,   363.000,  -194.000,1.02000,    0,   100.000,   0.00000,   1.00000,   0.00000,   0.00000,1.00000,1,  100.0,   636.000,   230.000,   1,1.0000,   0,1.0000,   0,1.0000,   0,1.0000,0, 1.0000
  165,'1 ',   782.000,    47.948,   745.000,  -397.000,1.02000,    0,   100.000,   0.00000,   1.00000,   0.00000,   0.00000,1.00000,0,  100.0,  1304.000,   782.000,   1,1.0000,   0,1.0000,   0,1.0000,   0,1.0000,0, 1.0000
  166,'1 ',   293.272,    54.326,   474.000,  -253.000,1.02000,    0,   100.000,   0.00000,   1.00000,   0.00000,   0.00000,1.00000,1,  100.0,   830.000,   277.000,   1,1.0000,   0,1.0000,   0,1.0000,   0,1.0000,0, 1.0000
  175,'1 ',   221.277,    15.197,   358.000,  -191.000,1.02000,    0,   100.000,   0.00000,   1.00000,   0.00000,   0.00000,1.00000,1,  100.0,   626.000,   209.000,   1,1.0000,   0,1.0000,   0,1.0000,   0,1.0000,0, 1.0000
  176,'1 ',    86.000,    10.685,   153.000,   -81.000,1.02000,    0,   100.000,   0.00000,   1.00000,   0.00000,   0.00000,1.00000,0,  100.0,   267.000,    86.000,   1,1.0000,   0,1.0000,   0,1.0000,   0,1.0000,0, 1.0000
0 / END OF GENERATOR DATA, BEGIN BRANCH DATA
    1,     2,'1 ', 0.00598, 0.12062,1.98515, 414.51, 414.51, 414.51,  0.00000,  0.00000,  0.00000,  0.00000,1,1, 239.2,   1,1.0000,   0,1.0000,   0,1.0000,   0,1.0000
    2,    39,'1 ', 0.00868, 0.06020,0.52937, 530.03, 530.03, 530.03,  0.00000,  0.00000,  0.00000,  0.00000,1,1,  86.8,   1,1.0000,   0,1.0000,   0,1.0000,   0,1.0000
    2,   139,'1 ', 0.00339, 0.02318,0.20974, 530.03, 530.03, 530.03,  0.00000,  0.00000,  0.00000,  0.00000,1,1,  33.9,   1,1.0000,   0,1.0000,   0,1.0000,   0,1.0000
    2,   181,'1 ', 0.00761, 0.05275,0.46393, 530.03, 530.03, 530.03,  0.00000,  0.00000,  0.00000,  0.00000,1,1,  76.1,   1,1.0000,   0,1.0000,   0,1.0000,   0,1.0000
    2,   201,'1 ', 0.00274, 0.01875,0.16965, 530.03, 530.03, 530.03,  0.00000,  0.00000,  0.00000,  0.00000,1,1,  27.4,   1,1.0000,   0,1.0000,   0,1.0000,   0,1.0000
    3,    18,'1 ', 0.00383, 0.15813,0.09685, 316.20, 316.20, 316.20,  0.00000,  0.00000,  0.00000,  0.00000,1,1,  60.3,   1,1.0000,   0,1.0000,   0,1.0000,   0,1.0000
    4,    75,'1 ', 0.01684, 0.03812,0.00951, 107.32, 107.32, 107.32,  0.00000,  0.00000,  0.00000,  0.00000,1,1,   9.2,   1,1.0000,   0,1.0000,   0,1.0000,   0,1.0000
    5,     8,'1 ', 0.00296, 0.03933,0.08406, 578.83, 578.83, 578.83,  0.00000,  0.00000,  0.00000,  0.00000,1,1,  27.9,   1,1.0000,   0,1.0000,   0,1.0000,   0,1.0000
    5,   184,'1 ', 0.04502, 0.11101,0.17939, 178.87, 178.87, 178.87,  0.00000,  0.00000,  0.00000,  0.00000,1,1,  68.6,   1,1.0000,   0,1.0000,   0,1.0000,   0,1.0000
    5,   207,'1 ', 0.00112, 0.01328,0.03027, 541.39, 541.39, 541.39,  0.00000,  0.00000,  0.00000,  0.00000,1,1,   9.7,   1,1.0000,   0,1.0000,   0,1.0000,   0,1.0000
    6,     7,'1 ', 0.06200, 0.14575,0.03365, 107.32, 107.32, 107.32,  0.00000,  0.00000,  0.00000,  0.00000,1,1,  34.0,   1,1.0000,   0,1.0000,   0,1.0000,   0,1.0000
    6,    70,'1 ', 0.03364, 0.07769,0.01859, 107.32, 107.32, 107.32,  0.00000,  0.00000,  0.00000,  0.00000,1,1,  18.5,   1,1.0000,   0,1.0000,   0,1.0000,   0,1.0000
    8,    54,'1 ', 0.00033, 0.00508,0.01216, 665.28, 665.28, 665.28,  0.00000,  0.00000,  0.00000,  0.00000,1,1,   3.8,   1,1.0000,   0,1.0000,   0,1.0000,   0,1.0000
  187,     9,'1 ', 0.00684, 0.04742,0.41703, 530.03, 530.03, 530.03,  0.00000,  0.00000,  0.00000,  0.00000,1,1,  68.4,   1,1.0000,   0,1.0000,   0,1.0000,   0,1.0000
   10,    11,'1 ', 0.00032, 0.00856,0.00495, 566.01, 566.01, 566.01,  0.00000,  0.00000,  0.00000,  0.00000,1,1,   3.2,   1,1.0000,   0,1.0000,   0,1.0000,   0,1.0000
   10,    70,'1 ', 0.00580, 0.06727,0.02063, 324.83, 324.83, 324.83,  0.00000,  0.00000,  0.00000,  0.00000,1,1,  18.1,   1,1.0000,   0,1.0000,   0,1.0000,   0,1.0000
   11,   173,'1 ', 0.01667, 0.12408,0.03486, 237.35, 237.35, 237.35,  0.00000,  0.00000,  0.00000,  0.00000,1,1,  31.9,   1,1.0000,   0,1.0000,   0,1.0000,   0,1.0000
  188,    13,'1 ', 0.00011, 0.00195,0.02003,1045.73,1045.73,1045.73,  0.00000,  0.00000,  0.00000,  0.00000,1,1,   3.0,   1,1.0000,   0,1.0000,   0,1.0000,   0,1.0000
   13,   190,'1 ', 0.00085, 0.01791,0.26779,1060.07,1060.07,1060.07,  0.00000,  0.00000,  0.00000,  0.00000,1,1,  33.9,   1,1.0000,   0,1.0000,   0,1.0000,   0,1.0000
   14,    15,'1 ', 0.03611, 0.08904,0.14388, 178.87, 178.87, 178.87,  0.00000,  0.00000,  0.00000,  0.00000,1,1,  55.0,   1,1.0000,   0,1.0000,   0,1.0000,   0,1.0000
   14,   177,'1 ', 0.01882, 0.06776,0.11459, 229.46, 229.46, 229.46,  0.00000,  0.00000,  0.00000,  0.00000,1,1,  42.5,   1,1.0000,   0,1.0000,   0,1.0000,   0,1.0000
   15,    61,'1 ', 0.00413, 0.02750,0.05200, 353.36, 353.36, 353.36,  0.00000,  0.00000,  0.00000,  0.00000,1,1,  18.4,   1,1.0000,   0,1.0000,   0,1.0000,   0,1.0000
  184,    15,'1 ', 0.00343, 0.04204,0.08894, 541.39, 541.39, 541.39,  0.00000,  0.00000,  0.00000,  0.00000,1,1,  29.7,   1,1.0000,   0,1.0000,   0,1.0000,   0,1.0000
   16,   149,'1 ', 0.01423, 0.04695,0.01231, 137.68, 137.68, 137.68,  0.00000,  0.00000,  0.00000,  0.00000,1,1,  11.6,   1,1.0000,   0,1.0000,   0,1.0000,   0,1.0000
   17,    18,'1 ', 0.05670, 0.19450,0.04709, 137.68, 137.68, 137.68,  0.00000,  0.00000,  0.00000,  0.00000,1,1,  46.1,   1,1.0000,   0,1.0000,   0,1.0000,   0,1.0000
   17,   145,'1 ', 0.04673, 0.10452,0.02669, 107.32, 107.32, 107.32,  0.00000,  0.00000,  0.00000,  0.00000,1,1,  25.6,   1,1.0000,   0,1.0000,   0,1.0000,   0,1.0000
   19,    96,'1 ', 0.05510, 0.12952,0.02990, 107.32, 107.32, 107.32,  0.00000,  0.00000,  0.00000,  0.00000,1,1,  30.2,   1,1.0000,   0,1.0000,   0,1.0000,   0,1.0000
   19,   105,'1 ', 0.00053, 0.01276,0.00724, 522.03, 522.03, 522.03,  0.00000,  0.00000,  0.00000,  0.00000,1,1,   4.7,   1,1.0000,   0,1.0000,   0,1.0000,   0,1.0000
   19,   110,'1 ', 0.00509, 0.02371,0.00609, 173.53, 173.53, 173.53,  0.00000,  0.00000,  0.00000,  0.00000,1,1,   5.8,   1,1.0000,   0,1.0000,   0,1.0000,   0,1.0000
   19,   118,'1 ', 0.00064, 0.01345,0.00755, 474.70, 474.70, 474.70,  0.00000,  0.00000,  0.00000,  0.00000,1,1,   4.9,   1,1.0000,   0,1.0000,   0,1.0000,   0,1.0000
   19,   175,'1 ', 0.05620, 0.25162,0.07017, 173.53, 173.53, 173.53,  0.00000,  0.00000,  0.00000,  0.00000,1,1,  64.5,   1,1.0000,   0,1.0000,   0,1.0000,   0,1.0000
   21,   129,'1 ', 0.00698, 0.03501,0.01005, 187.39, 187.39, 187.39,  0.00000,  0.00000,  0.00000,  0.00000,1,1,   9.1,   1,1.0000,   0,1.0000,   0,1.0000,   0,1.0000
   21,   130,'1 ', 0.00738, 0.06070,0.01884, 261.01, 261.01, 261.01,  0.00000,  0.00000,  0.00000,  0.00000,1,1,  16.4,   1,1.0000,   0,1.0000,   0,1.0000,   0,1.0000
   22,    23,'1 ', 0.01398, 0.03448,0.05572, 178.87, 178.87, 178.87,  0.00000,  0.00000,  0.00000,  0.00000,1,1,  21.3,   1,1.0000,   0,1.0000,   0,1.0000,   0,1.0000
   23,    24,'1 ', 0.04301, 0.10605,0.17137, 178.87, 178.87, 178.87,  0.00000,  0.00000,  0.00000,  0.00000,1,1,  65.6,   1,1.0000,   0,1.0000,   0,1.0000,   0,1.0000
   23,    90,'1 ', 0.00690, 0.02037,0.03648, 206.75, 206.75, 206.75,  0.00000,  0.00000,  0.00000,  0.00000,1,1,  13.2,   1,1.0000,   0,1.0000,   0,1.0000,   0,1.0000
   23,    91,'1 ', 0.01279, 0.05439,0.09557, 262.53, 262.53, 262.53,  0.00000,  0.00000,  0.00000,  0.00000,1,1,  35.1,   1,1.0000,   0,1.0000,   0,1.0000,   0,1.0000
   24,   177,'1 ', 0.00208, 0.01428,0.02528, 353.36, 353.36, 353.36,  0.00000,  0.00000,  0.00000,  0.00000,1,1,   9.2,   1,1.0000,   0,1.0000,   0,1.0000,   0,1.0000
   25,   133,'1 ', 0.00613, 0.04868,0.09258, 395.58, 395.58, 395.58,  0.00000,  0.00000,  0.00000,  0.00000,1,1,  32.6,   1,1.0000,   0,1.0000,   0,1.0000,   0,1.0000
   25,   168,'1 ', 0.01816, 0.04527,0.07160, 178.87, 178.87, 178.87,  0.00000,  0.00000,  0.00000,  0.00000,1,1,  27.7,   1,1.0000,   0,1.0000,   0,1.0000,   0,1.0000
   26,    42,'1 ', 0.00714, 0.04949,0.43522, 530.03, 530.03, 530.03,  0.00000,  0.00000,  0.00000,  0.00000,1,1,  71.4,   1,1.0000,   0,1.0000,   0,1.0000,   0,1.0000
   26,    43,'1 ', 0.00133, 0.00911,0.08245, 530.03, 530.03, 530.03,  0.00000,  0.00000,  0.00000,  0.00000,1,1,  13.3,   1,1.0000,   0,1.0000,   0,1.0000,   0,1.0000
   26,   202,'1 ', 0.01045, 0.07245,0.63716, 530.03, 530.03, 530.03,  0.00000,  0.00000,  0.00000,  0.00000,1,1, 104.5,   1,1.0000,   0,1.0000,   0,1.0000,   0,1.0000
   27,   160,'1 ', 0.02217, 0.05468,0.08835, 178.87, 178.87, 178.87,  0.00000,  0.00000,  0.00000,  0.00000,1,1,  33.8,   1,1.0000,   0,1.0000,   0,1.0000,   0,1.0000
   28,    77,'1 ', 0.06656, 0.15647,0.03612, 107.32, 107.32, 107.32,  0.00000,  0.00000,  0.00000,  0.00000,1,1,  36.5,   1,1.0000,   0,1.0000,   0,1.0000,   0,1.0000
   28,    88,'1 ', 0.00116, 0.01860,0.00608, 418.29, 418.29, 418.29,  0.00000,  0.00000,  0.00000,  0.00000,1,1,   5.1,   1,1.0000,   0,1.0000,   0,1.0000,   0,1.0000
   29,    84,'1 ', 0.00955, 0.09168,0.02681, 283.00, 283.00, 283.00,  0.00000,  0.00000,  0.00000,  0.00000,1,1,  24.0,   1,1.0000,   0,1.0000,   0,1.0000,   0,1.0000
   39,    43,'1 ', 0.00577, 0.04003,0.35199, 530.03, 530.03, 530.03,  0.00000,  0.00000,  0.00000,  0.00000,1,1,  57.7,   1,1.0000,   0,1.0000,   0,1.0000,   0,1.0000
   40,    43,'1 ', 0.00360, 0.02314,0.23770, 530.03, 530.03, 530.03,  0.00000,  0.00000,  0.00000,  0.00000,1,1,  36.0,   1,1.0000,   0,1.0000,   0,1.0000,   0,1.0000
  202,    41,'1 ', 0.00271, 0.01880,0.16536, 530.03, 530.03, 530.03,  0.00000,  0.00000,  0.00000,  0.00000,1,1,  27.1,   1,1.0000,   0,1.0000,   0,1.0000,   0,1.0000
   42,   167,'1 ', 0.00687, 0.04934,0.40438, 530.03, 530.03, 530.03,  0.00000,  0.00000,  0.00000,  0.00000,1,1,  68.7,   1,1.0000,   0,1.0000,   0,1.0000,   0,1.0000
   44,    55,'1 ', 0.00742, 0.02703,0.04470, 229.46, 229.46, 229.46,  0.00000,  0.00000,  0.00000,  0.00000,1,1,  16.8,   1,1.0000,   0,1.0000,   0,1.0000,   0,1.0000
   45,    52,'1 ', 0.00089, 0.00836,0.07659, 652.53, 652.53, 652.53,  0.00000,  0.00000,  0.00000,  0.00000,1,1,  12.3,   1,1.0000,   0,1.0000,   0,1.0000,   0,1.0000
  206,    45,'1 ', 0.00042, 0.00286,0.02611, 530.03, 530.03, 530.03,  0.00000,  0.00000,  0.00000,  0.00000,1,1,   4.2,   1,1.0000,   0,1.0000,   0,1.0000,   0,1.0000
   45,   212,'1 ', 0.00103, 0.00976,0.08940, 652.53, 652.53, 652.53,  0.00000,  0.00000,  0.00000,  0.00000,1,1,  14.3,   1,1.0000,   0,1.0000,   0,1.0000,   0,1.0000
   46,    47,'1 ', 0.01683, 0.10628,0.02894, 212.01, 212.01, 212.01,  0.00000,  0.00000,  0.00000,  0.00000,1,1,  26.9,   1,1.0000,   0,1.0000,   0,1.0000,   0,1.0000
   47,    63,'1 ', 0.03810, 0.08957,0.02068, 107.32, 107.32, 107.32,  0.00000,  0.00000,  0.00000,  0.00000,1,1,  20.9,   1,1.0000,   0,1.0000,   0,1.0000,   0,1.0000
   48,   150,'1 ', 0.00352, 0.02444,0.21489, 530.03, 530.03, 530.03,  0.00000,  0.00000,  0.00000,  0.00000,1,1,  35.2,   1,1.0000,   0,1.0000,   0,1.0000,   0,1.0000
  182,    48,'1 ', 0.00342, 0.02370,0.20841, 530.03, 530.03, 530.03,  0.00000,  0.00000,  0.00000,  0.00000,1,1,  34.2,   1,1.0000,   0,1.0000,   0,1.0000,   0,1.0000
   49,    65,'1 ', 0.00180, 0.03771,0.02118, 474.70, 474.70, 474.70,  0.00000,  0.00000,  0.00000,  0.00000,1,1,  13.8,   1,1.0000,   0,1.0000,   0,1.0000,   0,1.0000
   50,    65,'1 ', 0.00526, 0.03751,0.01148, 237.35, 237.35, 237.35,  0.00000,  0.00000,  0.00000,  0.00000,1,1,  10.1,   1,1.0000,   0,1.0000,   0,1.0000,   0,1.0000
   51,    68,'1 ', 0.00406, 0.03734,0.01192, 283.00, 283.00, 283.00,  0.00000,  0.00000,  0.00000,  0.00000,1,1,  10.2,   1,1.0000,   0,1.0000,   0,1.0000,   0,1.0000
   51,    72,'1 ', 0.00071, 0.00719,0.00234, 304.04, 304.04, 304.04,  0.00000,  0.00000,  0.00000,  0.00000,1,1,   2.0,   1,1.0000,   0,1.0000,   0,1.0000,   0,1.0000
  183,    52,'1 ', 0.00205, 0.02164,0.20301, 707.51, 707.51, 707.51,  0.00000,  0.00000,  0.00000,  0.00000,1,1,  32.1,   1,1.0000,   0,1.0000,   0,1.0000,   0,1.0000
...